16
11 Pyridinium dicyanomethylide -471.3788 0.1143 -471.9544 -471.8989
N 0.139504 0.000109 -0.000023
N -2.462353 2.265836 0.000108
N -2.461289 -2.266329 0.000025
C 0.842840 -1.176795 0.000005
C 0.842872 1.177081 -0.000028
C 2.219342 -1.189429 0.000027
C 2.219340 1.189687 -0.000007
C 2.943434 0.000113 0.000021
C -1.262835 -0.000040 -0.000051
C -1.940830 1.225067 -0.000091
C -1.940318 -1.225344 -0.000009
H 0.244463 -2.076112 0.000008
H 0.244500 2.076387 -0.000048
H 2.715606 -2.152400 0.000048
H 2.715650 2.152638 -0.000012
H 4.025683 0.000129 0.000037
